New Loadshape.EV_Profile_1 npts=152 interval=1m
~ mult=(0.40043 0.449 0.45057 0.45 0.45214 0.39629 0.45214 0.45229 0.45229 0.45214 0.39557 0.45157 0.45186 0.45157 0.45186 0.39757 0.45043 0.45143 0.45143 0.451 0.45171 0.45486 0.45457 0.45457 0.45457 0.45457 0.455 0.45514 0.45486 0.45514 0.44 0.41314 0.45471 0.45486 0.45471 0.45429 0.45429 0.45457 0.45443 0.45457 0.45443 0.45443 0.45457 0.45443 0.44886 0.44514 0.398 0.45486 0.45443 0.45514 0.45457 0.45457 0.45486 0.45543 0.45629 0.45829 0.46543 0.45557 0.45543 0.45543 0.455 0.39857 0.45514 0.455 0.455 0.45514 0.45486 0.45471 0.45543 0.45543 0.45557 0.45543 0.455 0.45557 0.45514 0.45571 0.39871 0.45529 0.45514 0.45586 0.45543 0.45514 0.45571 0.45543 0.45514 0.45571 0.45586 0.45557 0.45571 0.45557 0.45543 0.39871 0.45557 0.45571 0.45514 0.45486 0.45529 0.455 0.455 0.45486 0.45543 0.45471 0.45514 0.45457 0.455 0.45471 0.39857 0.45486 0.45471 0.45443 0.45486 0.45457 0.455 0.45471 0.45471 0.45414 0.45529 0.45486 0.45514 0.45543 0.45486 0.39829 0.45486 0.455 0.392 0.29357 0.23314 0.11529 0.10514 0.10514 0.10514 0.10514 0.10529 0.10729 0.113 0.11271 0.10443 0.11657 0.11643 0.11643 0.11643 0.11643 0.11629 0.09386 0.0 0.0 0.0 0.0 0.0 0.0 0.0 0.0)


New Loadshape.EV_Profile_2 npts=364 interval=1m
~ mult=(0.47557 0.81914 0.81871 0.81857 0.81743 0.81771 0.81757 0.81714 0.81743 0.81786 0.81714 0.81743 0.81757 0.81729 0.81686 0.81671 0.817 0.81714 0.81614 0.81657 0.81657 0.81557 0.81514 0.82214 0.82614 0.82229 0.819 0.81857 0.81843 0.819 0.81971 0.81914 0.81971 0.81957 0.819 0.81871 0.81857 0.81929 0.81814 0.81843 0.818 0.81729 0.81786 0.81771 0.81743 0.81743 0.81771 0.81757 0.81757 0.81757 0.81729 0.81657 0.81629 0.81671 0.81686 0.81671 0.81757 0.817 0.813 0.81057 0.81071 0.81014 0.81 0.81 0.80943 0.80914 0.80943 0.80829 0.808 0.80814 0.80857 0.80843 0.80814 0.80771 0.80757 0.80771 0.80757 0.80814 0.80757 0.80686 0.80514 0.80557 0.80586 0.80443 0.80457 0.80414 0.80457 0.80414 0.804 0.80486 0.80457 0.80471 0.80443 0.80457 0.80486 0.80443 0.80443 0.80986 0.81514 0.81486 0.81486 0.81314 0.81386 0.81357 0.81429 0.81443 0.81529 0.81471 0.81371 0.81386 0.81371 0.815 0.81429 0.81529 0.81657 0.81529 0.81429 0.81429 0.81443 0.81429 0.81457 0.81514 0.81429 0.81514 0.81429 0.81443 0.81429 0.81371 0.81343 0.81357 0.81357 0.81386 0.81357 0.81357 0.81329 0.81386 0.81357 0.81357 0.81357 0.814 0.81443 0.81429 0.81443 0.81486 0.81471 0.81429 0.81443 0.81457 0.81486 0.81486 0.81514 0.81443 0.81414 0.81443 0.81314 0.81214 0.81171 0.813 0.81314 0.81257 0.81186 0.81257 0.81143 0.81143 0.81243 0.81343 0.81286 0.81229 0.81186 0.81129 0.81143 0.81157 0.81057 0.81 0.81014 0.80914 0.80914 0.80929 0.80971 0.80871 0.80814 0.80843 0.80771 0.80786 0.80814 0.808 0.80843 0.80829 0.808 0.80814 0.80814 0.80729 0.80786 0.80771 0.808 0.80829 0.80814 0.80829 0.80814 0.80914 0.80957 0.80957 0.80929 0.80986 0.81 0.81014 0.81 0.81 0.81029 0.81043 0.81029 0.81043 0.81043 0.81057 0.81057 0.81043 0.81 0.81029 0.80943 0.81043 0.81 0.809 0.80971 0.80929 0.80886 0.80914 0.80843 0.80814 0.80757 0.808 0.80786 0.80786 0.80757 0.80786 0.80829 0.80786 0.80714 0.80786 0.80771 0.80729 0.80771 0.808 0.80771 0.80771 0.80714 0.76914 0.805 0.75886 0.73429 0.718 0.51886 0.63143 0.69457 0.72429 0.728 0.71529 0.73086 0.71871 0.73 0.71357 0.762 0.72529 0.72371 0.72914 0.72157 0.24043 0.538 0.71571 0.75129 0.71257 0.41657 0.71429 0.71143 0.74171 0.75343 0.72743 0.41971 0.705 0.74371 0.74057 0.71029 0.74957 0.72014 0.39014 0.739 0.71671 0.72557 0.73914 0.72171 0.71414 0.74186 0.71086 0.74871 0.72786 0.72186 0.73114 0.73143 0.71329 0.72743 0.72571 0.743 0.71471 0.76643 0.74971 0.72786 0.71086 0.73214 0.71371 0.723 0.70986 0.72357 0.71571 0.76543 0.72986 0.74257 0.75029 0.81243 0.81243 0.77771 0.78557 0.78486 0.735 0.77286 0.814 0.81386 0.80629 0.745 0.80657 0.739 0.72171 0.74443 0.74886 0.77114 0.81543 0.789 0.711 0.724 0.42814 0.69614 0.80557 0.73814 0.73657 0.72171 0.77043 0.80243 0.71743 0.73386 0.76343 0.71629 0.72514 0.72471 0.74243 0.74429 0.75386 0.72314 0.72714 0.73186 0.71514 0.73414 0.71443 0.72871 0.03571 0.0 0.0)

